5WYZ.B
  MOE2022           3D

 32 34  0  0  0  0  0  0  0  0999 V2000
   61.4170   -3.1520   32.2790 O   0  0  0  0  0  0  0  0  0  0  0  0
   61.5060   -2.8466   33.1847 H   0  0  0  0  0  0  0  0  0  0  0  0
   62.3960   -2.7560   31.4470 C   0  0  0  0  0  0  0  0  0  0  0  0
   63.5150   -1.9130   31.9180 C   0  0  0  0  0  0  0  0  0  0  0  0
   63.6880   -1.4390   33.3410 C   0  0  0  0  0  0  0  0  0  0  0  0
   64.5926   -0.8355   33.4155 H   0  0  0  0  0  0  0  0  0  0  0  0
   63.7705   -2.3006   34.0035 H   0  0  0  0  0  0  0  0  0  0  0  0
   62.8258   -0.8387   33.6314 H   0  0  0  0  0  0  0  0  0  0  0  0
   64.5010   -1.5650   31.0130 C   0  0  0  0  0  0  0  0  0  0  0  0
   65.3330   -0.9610   31.3437 H   0  0  0  0  0  0  0  0  0  0  0  0
   62.3620   -3.1370   30.1050 C   0  0  0  0  0  0  0  0  0  0  0  0
   61.5410   -3.7303   29.7304 H   0  0  0  0  0  0  0  0  0  0  0  0
   63.3910   -2.7490   29.2510 C   0  0  0  0  0  0  0  0  0  0  0  0
   63.3669   -3.0605   28.2172 H   0  0  0  0  0  0  0  0  0  0  0  0
   64.4440   -1.9720   29.7010 C   0  0  0  0  0  0  0  0  0  0  0  0
   65.5010   -1.5870   28.7390 C   0  0  0  0  0  0  0  0  0  0  0  0
   66.8300   -1.8560   28.9740 C   0  0  0  0  0  0  0  0  0  0  0  0
   67.1250   -2.3520   29.8869 H   0  0  0  0  0  0  0  0  0  0  0  0
   67.8000   -1.4900   28.0360 C   0  0  0  0  0  0  0  0  0  0  0  0
   68.8306   -1.7399   28.2404 H   0  0  0  0  0  0  0  0  0  0  0  0
   67.5170   -0.8470   26.9000 N   0  0  0  0  0  0  0  0  0  0  0  0
   65.1520   -0.8500   27.4970 C   0  0  0  0  0  0  0  0  0  0  0  0
   63.8470   -0.4890   27.1720 C   0  0  0  0  0  0  0  0  0  0  0  0
   63.0332   -0.7154   27.8450 H   0  0  0  0  0  0  0  0  0  0  0  0
   63.6060    0.1640   25.9750 C   0  0  0  0  0  0  0  0  0  0  0  0
   62.5962    0.4444   25.7139 H   0  0  0  0  0  0  0  0  0  0  0  0
   64.6490    0.4630   25.1050 C   0  0  0  0  0  0  0  0  0  0  0  0
   64.3720    1.0900   23.9500 O   0  0  0  0  0  0  0  0  0  0  0  0
   65.1304    1.2515   23.3840 H   0  0  0  0  0  0  0  0  0  0  0  0
   65.9550    0.1060   25.3910 C   0  0  0  0  0  0  0  0  0  0  0  0
   66.7439    0.3276   24.6875 H   0  0  0  0  0  0  0  0  0  0  0  0
   66.2460   -0.5350   26.5800 C   0  0  0  0  0  0  0  0  0  0  0  0
  1  2  1  0  0  0  0
  1  3  1  0  0  0  0
  3  4  2  0  0  0  0
  3 11  1  0  0  0  0
  4  5  1  0  0  0  0
  4  9  1  0  0  0  0
  5  6  1  0  0  0  0
  5  7  1  0  0  0  0
  5  8  1  0  0  0  0
  9 10  1  0  0  0  0
  9 15  2  0  0  0  0
 11 12  1  0  0  0  0
 11 13  2  0  0  0  0
 13 14  1  0  0  0  0
 13 15  1  0  0  0  0
 15 16  1  0  0  0  0
 16 17  1  0  0  0  0
 16 22  2  0  0  0  0
 17 18  1  0  0  0  0
 17 19  2  0  0  0  0
 19 20  1  0  0  0  0
 19 21  1  0  0  0  0
 21 32  2  0  0  0  0
 22 23  1  0  0  0  0
 22 32  1  0  0  0  0
 23 24  1  0  0  0  0
 23 25  2  0  0  0  0
 25 26  1  0  0  0  0
 25 27  1  0  0  0  0
 27 28  1  0  0  0  0
 27 30  2  0  0  0  0
 28 29  1  0  0  0  0
 30 31  1  0  0  0  0
 30 32  1  0  0  0  0
M  END
$$$$
